[General]

network = final
**.plan = ${plan= 1.. 9 step 1}														
final.host[0].*.host_num = 0
final.host[1].*.host_num = 1
final.host[2].*.host_num = 2
final.host[3].*.host_num = 3
final.host[*].application.delayTime = exponential(${1s/0.1, 1s/0.2, 1s/0.3, 1s/0.4, 1s/0.5, 1s/0.6, 1s/0.7, 1s/0.8, 1s/0.9 !plan}) 
final.host[*].application.pck_len = int(normal(1000B,150B))
final.host[*].ip.ip_add = int(uniform(0,4))
final.switch.switch_aging_time = 1s
final.switch.swtitchLatencyTime = 0.000000003s
final.host[*].ethernet.arp_life_time = 10s
sim-time-limit = 500s


